
**** 10/08/08 10:36:31 ******* PSpice 10.0.0 (Jan 2003) ******* ID# 1111111111 
 ** Profile: "SCHEMATIC1-simulation"  [ I:\Classe_2SE\denysmatthieu\TP\TP3-PSpiceFiles\SCHEMATIC1\simulation.sim ] 


 ****     CIRCUIT DESCRIPTION


******************************************************************************




** Creating circuit file "simulation.cir" 
** WARNING: THIS AUTOMATICALLY GENERATED FILE MAY BE OVERWRITTEN BY SUBSEQUENT SIMULATIONS

*Libraries: 
* Profile Libraries :
* Local Libraries :
* From [PSPICE NETLIST] section of C:\OrCAD\OrCAD_10.0\tools\PSpice\PSpice.ini file:
.lib "nom.lib" 

*Analysis directives: 
.TRAN  0 5m 0 
.PROBE V(alias(*)) I(alias(*)) W(alias(*)) D(alias(*)) NOISE(alias(*)) 
.INC "..\SCHEMATIC1.net" 



**** INCLUDING SCHEMATIC1.net ****
* source TP3
X_U1A         N00187 0 N00972 0 N00257 M5238
R_R1         N00195 N00257  1k  
R_R2         N00195 N00187  1k  
R_R3         0 N00195  1k  
C_C1         N00187 N00257  1n   
V_V1         N00325 0  
+PULSE 10 0 0 0 0 50u 100u
C_C2         N00325 N00195  1n   
V_V2         N00972 0 5

**** RESUMING simulation.cir ****
.END

**** 10/08/08 10:36:31 ******* PSpice 10.0.0 (Jan 2003) ******* ID# 1111111111 
 ** Profile: "SCHEMATIC1-simulation"  [ I:\Classe_2SE\denysmatthieu\TP\TP3-PSpiceFiles\SCHEMATIC1\simulation.sim ] 


 ****     Diode MODEL PARAMETERS


******************************************************************************




               X_U1A.dx        
          IS  800.000000E-18 


**** 10/08/08 10:36:31 ******* PSpice 10.0.0 (Jan 2003) ******* ID# 1111111111 
 ** Profile: "SCHEMATIC1-simulation"  [ I:\Classe_2SE\denysmatthieu\TP\TP3-PSpiceFiles\SCHEMATIC1\simulation.sim ] 


 ****     Junction FET MODEL PARAMETERS


******************************************************************************




               X_U1A.jx        
               PJF             
         VTO   -1            
        BETA  789.600000E-09 
          IS   15.000000E-12 


WARNING -- Pulse Period < (Rise Time + Fall Time + Pulse Width) for V_V1
**** 10/08/08 10:36:31 ******* PSpice 10.0.0 (Jan 2003) ******* ID# 1111111111 
 ** Profile: "SCHEMATIC1-simulation"  [ I:\Classe_2SE\denysmatthieu\TP\TP3-PSpiceFiles\SCHEMATIC1\simulation.sim ] 


 ****     INITIAL TRANSIENT SOLUTION       TEMPERATURE =   27.000 DEG C


******************************************************************************



 NODE   VOLTAGE     NODE   VOLTAGE     NODE   VOLTAGE     NODE   VOLTAGE


(N00187)    2.2666 (N00195)    2.2666 (N00257)    4.5333 (N00325)   10.0000     

(N00972)    5.0000 (X_U1A.6)    -.0724                   (X_U1A.7)    4.6466    

(X_U1A.8)    4.6466                   (X_U1A.9)    0.0000                       

(X_U1A.10)     .4245                  (X_U1A.11)     .0573                      

(X_U1A.12) 1.374E-06                  (X_U1A.53)    4.0000                      

(X_U1A.54)    1.0000                  (X_U1A.90)    2.2674                      

(X_U1A.91)   50.0000                  (X_U1A.92)  -50.0000                      

(X_U1A.99)    2.5000                  




    VOLTAGE SOURCE CURRENTS
    NAME         CURRENT

    V_V1         0.000E+00
    V_V2        -2.644E-03
    X_U1A.vb    -7.239E-07
    X_U1A.vc    -7.199E-07
    X_U1A.ve     3.534E-12
    X_U1A.vlim   2.267E-03
    X_U1A.vlp   -4.773E-11
    X_U1A.vln   -5.227E-11

    TOTAL POWER DISSIPATION   1.32E-02  WATTS


ERROR -- Convergence problem in transient analysis at Time =  4.200E-03
         Time step =  3.999E-15, minimum allowable step size =  5.000E-15



  Last node voltages tried were:

 NODE   VOLTAGE     NODE   VOLTAGE     NODE   VOLTAGE     NODE   VOLTAGE


(N00187)    2.3343 (N00195)   12.2670 (N00257)    4.6011 (N00325)   10.0000     

(N00972)    5.0000 (X_U1A.6)    -.9973                   (X_U1A.7)    3.7217    

(X_U1A.8)    3.7217                   (X_U1A.9)    0.0000                       

(X_U1A.10)     .4245                  (X_U1A.11)     .0573                      

(X_U1A.12) 1.377E-06                  (X_U1A.53)    4.0000                      

(X_U1A.54)    1.0000                  (X_U1A.90)  -17.5880                      

(X_U1A.91)   50.0000                  (X_U1A.92)  -50.0000                      

(X_U1A.99)    2.5000                  


**** Interrupt ****
